/*--------------------------------*- C++ -*----------------------------------*=========                 |
\      /  F ield         | OpenFOAM: The Open Source CFD Toolbox
 \    /   O peration     | Website:  https://openfoam.org
  \  /    A nd           | Version:  8
   \/     M anipulation  |
\*---------------------------------------------------------------------------*/

FoamFile
{
	version     2.0;
	format      ascii;
	class       polyBoundaryMesh;
	object      boundary;
}

// * * * * * * * * * * * * * * * * * * * * * * * * * * * * * * * * * * * * * //
3
(
wall
		{
			type patch;
			nFaces 3408;
			startFace 237996;
		}
		inlet_0
		{
			type patch;
			nFaces 564;
			startFace 241404;
		}
		outlet_0
		{
			type patch;
			nFaces 564;
			startFace 241968;
		}
		)

// ************************************************************************* //
